Version 4
SHEET 1 1268 920
WIRE 560 -464 208 -464
WIRE 496 -416 448 -416
WIRE 496 -368 496 -416
WIRE 352 -352 352 -384
WIRE 448 -352 448 -416
WIRE 656 -352 656 -432
WIRE 1088 -352 1088 -384
WIRE 1232 -352 1232 -384
WIRE 560 -304 560 -464
WIRE 560 -304 464 -304
WIRE 208 -272 208 -464
WIRE 208 -272 -304 -272
WIRE 304 -272 208 -272
WIRE 656 -240 656 -272
WIRE 656 -240 464 -240
WIRE 1088 -240 1088 -272
WIRE 1232 -240 1232 -272
WIRE 400 -160 400 -192
WIRE 448 -128 448 -192
WIRE 352 -32 96 -32
WIRE 528 -32 432 -32
WIRE 208 32 144 32
WIRE 656 32 656 -240
WIRE 208 64 208 32
WIRE 304 64 304 32
WIRE -128 112 -160 112
WIRE 96 112 96 -32
WIRE 96 112 -48 112
WIRE 192 112 96 112
WIRE 528 144 528 -32
WIRE 528 144 352 144
WIRE 656 144 656 112
WIRE 656 144 528 144
WIRE 192 176 96 176
WIRE 656 176 656 144
WIRE -304 256 -304 -272
WIRE 208 256 208 224
WIRE 208 256 -304 256
WIRE 256 256 256 224
WIRE 144 352 144 32
WIRE 208 352 144 352
WIRE 560 352 208 352
WIRE 352 480 352 448
WIRE 448 480 448 432
WIRE 560 528 560 352
WIRE 560 528 464 528
WIRE 208 560 208 352
WIRE 304 560 208 560
WIRE 656 592 656 256
WIRE 656 592 464 592
WIRE 656 624 656 592
WIRE 400 672 400 640
WIRE 448 688 448 640
WIRE -160 704 -160 112
WIRE 96 704 96 176
WIRE 656 784 656 704
WIRE -160 880 -160 784
WIRE 96 880 96 784
FLAG 656 784 +VDD
FLAG 656 -432 -VDD
FLAG 448 432 +VDD
FLAG 448 688 0
FLAG 496 -368 0
FLAG 448 -128 -VDD
FLAG 304 32 +5V
FLAG 256 256 0
FLAG 400 -160 0
FLAG 400 672 0
FLAG 352 -384 +5V
FLAG 352 448 +5V
FLAG 1232 -240 0
FLAG 1088 -384 +VDD
FLAG 1232 -384 -VDD
FLAG 1088 -240 0
FLAG 96 880 0
FLAG -160 880 0
SYMBOL res 640 160 R0
SYMATTR InstName R1
SYMATTR Value 100k
SYMBOL res 640 16 R0
SYMATTR InstName R2
SYMATTR Value 100k
SYMBOL res 640 608 R0
SYMATTR InstName R3
SYMATTR Value 100k
SYMBOL res 640 -368 R0
SYMATTR InstName R4
SYMATTR Value 100k
SYMBOL res -32 96 R90
WINDOW 0 0 56 VBottom 2
WINDOW 3 32 56 VTop 2
SYMATTR InstName R5
SYMATTR Value 2k
SYMBOL res 448 -48 R90
WINDOW 0 0 56 VBottom 2
WINDOW 3 32 56 VTop 2
SYMATTR InstName R6
SYMATTR Value 132k
SYMBOL voltage 1088 -256 R180
WINDOW 123 0 0 Left 2
WINDOW 39 0 0 Left 2
SYMATTR InstName V1
SYMATTR Value {-v_pre}
SYMBOL voltage 1232 -256 R180
WINDOW 123 0 0 Left 2
WINDOW 39 0 0 Left 2
SYMATTR InstName V2
SYMATTR Value {v_pre}
SYMBOL voltage 96 688 R0
WINDOW 123 24 124 Left 2
WINDOW 39 0 0 Left 2
SYMATTR InstName V3
SYMATTR Value ""
SYMATTR Value2 AC 1
SYMBOL Opamps\\LTC6090-5 256 144 R0
SYMATTR InstName U1
SYMBOL Opamps\\LTC6090-5 400 -272 M0
SYMATTR InstName U2
SYMBOL Opamps\\LTC6090-5 400 560 M0
SYMATTR InstName U3
SYMBOL voltage -160 688 R0
WINDOW 3 24 152 Left 2
WINDOW 123 24 124 Left 2
WINDOW 39 0 0 Left 2
SYMATTR InstName V4
SYMATTR Value 1.65
TEXT 1032 -544 Left 2 !.param v_pre 125
TEXT -410 736 Left 2 !.ac dec 1000 1 100meg
